ZXM66P03N8*ZETEX ZXM66P03N8 Spice Model v1.0 Last Revised 31/10/07
    *
    .SUBCKT ZXM66P03N8 3 4 5
    *----connections----D G S
    *
    M1 6 2 8 8 MOSMOD
    M2 6 41 8 8 MOSMODS
    RG 41 2 5
    RIN 2 8 100E6
    RD 31 6 RMOD1 0.005
    RS 8 51 RMOD1 0.018
    RL 3 5 350E6
    C1 2 8 800E-12
    C2 6 2 900E-12
    C3 15 14 3300E-12 
    C4 16 8 2000E-12
    D1 3 5 DMOD1
    Egt1 42 41 21 8 1
    Vgt1 8 22 1
    Igt1 8 21 1
    Rgt 21 22 RMOD2 1
    S1 2 15 13 14 SMOD1a
    S2 13 15 13 14 SMOD1b
    S3 16 13 8 13 SMOD2a
    S4 16 2 8 13 SMOD2b
    Egs2 13 8 2 8 1
    Eds1 14 8 31 8 1
    LD 3 31 1.3E-9
    LG 4 42 1.2E-9
    LS 5 51 1.2E-9
    .MODEL MOSMOD PMOS VTO=-2.33 IS=1E-15 KP=50 CBD=1E-12 PB=1 LAMBDA=4.9E-3
    .MODEL MOSMODS PMOS VTO=-1.75 IS=1E-15 KP=10 PB=1
    .MODEL DMOD1 D IS=1.2E-12 RS=0.012 TT=2.5e-8 BV=35
    .MODEL SMOD1a VSWITCH RON=1e-2 ROFF=1e4  VON=-1.75 VOFF=1.75
    .MODEL SMOD1b VSWITCH RON=1e-2 ROFF=1e4  VON=1.75 VOFF=-1.75
    .MODEL SMOD2a VSWITCH RON=1e-2 ROFF=1e4  VON=-1.5 VOFF=-3.5
    .MODEL SMOD2b VSWITCH RON=1e-2 ROFF=1e4  VON=-3.5 VOFF=-1.5
    .MODEL RMOD1 RES (TC1=3E-3 TC2=8E-6)
    .MODEL RMOD2 RES (TC1=3E-3 TC2=2E-6)
    .ENDS ZXM66P03N8
    *
    *$
    *

.model KD203B D(Is=303.3f Rs=30.57m N=1 Xti=3 Eg=1.11 Bv=799.9v Ibv=7.607u Cjo=21.2p Vj=.73 M=.28 Fc=.5 Tt=9.09e-7 mfg=USSR type=silicon)
.model KD203V D(Is=268.8f Rs=14.95m N=1 Xti=3 Eg=1.11 Bv=799.9 Ibv=7.607u Cjo=21.2p Vj=.73 M=.28 Fc=.5 Tt=9.09e-7 mfg=USSR type=silicon)
.model KD203G D(Is=303.3f Rs=30.57m N=1 Xti=3 Eg=1.11 Bv=999.9 Ibv=7.607u Cjo=21.2p Vj=.73 M=.28 Fc=.5 Tt=9.09e-7 mfg=USSR type=silicon)
    .model KD203D D(Is=268.8f Rs=14.95m N=1 Xti=3 Eg=1.11 Bv=999.9 Ibv=7.607u Cjo=21.2p Vj=.73 M=.28 Fc=.5 Tt=9.09e-7 mfg=USSR type=silicon)
 .Model KD204A D(Is=4.110n N=1.52 Rs=7.5e-2 Cjo=31.5p Tt=1.16e-7 M=0.35 Vj=0.68 Fc=0.5 Bv=400 IBv=1e-10 Eg=1.11 Xti=3 mfg=USSR type=silicon )
.MODEL DF D ( IS=6.18p RS=29.6 N=1.10
+ CJO=20.1p VJ=1.00 M=0.330 TT=50.1n )
.model SS24 D(Is=.4mA Rs=.016 N=2.1 Cjo=800p Eg=.69 Xti=2 Iave=2 Vpk=40 mfg=Fairchild type=Schottky)
.model APT1608SURCK d(IS=2.01E-17 N=2.139 RS=2 m=0.431 Vj=2.32 Cjo=35pF IBV=10u BV=5 EG=2.26 XTI=3 Iave=30mA Vpk=5 mfg=Kingbright type=LED)
.MODEL UF4007 D N=3.97671 IS=3.28772u RS=0.149734 EG=1.11 XTI=3 CJO=2.92655E-011 VJ=0.851862 M=0.334552 FC=0.5 TT=1.84973E-007 BV=1000 IBV=0.2 Iave=1 Vpk=1000 type=silicon
.Model BYW96E D(IS=59.77971E-6 N=3.61403 RS=52.308E-3 IKF=0.566356 CJO=27.010E-12 M=.43978 VJ=.81612 ISR=447.9139E-9 NR=2.54303 BV=1.2003E3 IBV=2.5910 TT=295.54E-9 Iave=3 Vpk=1000 mfg=Philips type=Silicon)
.MODEL DSUB D IS = 3.162E-009 N = 1.241 RS = 0.08353 BV = 1E+006 CJO = 5.653E-011 VJ = 0.008286 M = 0.1128
.MODEL DI_SDM20N40A D  ( IS=34.0p RS=0.211 BV=40.0 IBV=15.0u CJO=50.0p  M=0.333 N=1.73 TT=7.20n
.MODEL DI_SDM40E20LC D  ( IS=2.83m RS=23.0m BV=20.0 IBV=250u CJO=66.3p  M=0.333 N=2.17 TT=14.4n

